fastmcp
openfast-toolbox @ git+https://github.com/OpenFAST/openfast_toolbox
